<?xml version="1.0" encoding="UTF-8"?>

<!-- generated on 2022-11-28 14:30:10 by Eclipse SUMO netedit Version 1.14.1
<configuration xmlns:xsi="http://www.w3.org/2001/XMLSchema-instance" xsi:noNamespaceSchemaLocation="http://sumo.dlr.de/xsd/netconvertConfiguration.xsd">

    <input>
        <sumo-net-file value="C:\Users\Taher\Desktop\python_project\CongestionControl\28-11-2022\cross%20intersection.net.xml"/>
    </input>

    <output>
        <output-file value="C:\Users\Taher\Desktop\python_project\CongestionControl\28-11-2022\cross%20intersection.net.xml"/>
    </output>

    <processing>
        <geometry.min-radius.fix.railways value="false"/>
        <geometry.max-grade.fix value="false"/>
        <offset.disable-normalization value="true"/>
        <lefthand value="false"/>
    </processing>

    <junctions>
        <no-turnarounds value="true"/>
        <junctions.corner-detail value="5"/>
        <junctions.limit-turn-speed value="5.5"/>
        <rectangular-lane-cut value="false"/>
    </junctions>

    <pedestrian>
        <walkingareas value="false"/>
    </pedestrian>

</configuration>
-->

<net version="1.9" junctionCornerDetail="5" limitTurnSpeed="5.50" xmlns:xsi="http://www.w3.org/2001/XMLSchema-instance" xsi:noNamespaceSchemaLocation="http://sumo.dlr.de/xsd/net_file.xsd">

    <location netOffset="0.00,0.00" convBoundary="100.00,-200.00,900.00,200.00" origBoundary="-10000000000.00,-10000000000.00,10000000000.00,10000000000.00" projParameter="!"/>

    <edge id=":J0_0" function="internal">
        <lane id=":J0_0_0" index="0" speed="11.12" length="28.38" shape="109.60,208.00 101.90,206.90 96.40,203.60 93.10,198.10 92.00,190.40"/>
        <lane id=":J0_0_1" index="1" speed="10.10" length="23.22" shape="109.60,204.80 103.30,203.90 98.80,201.20 96.10,196.70 95.20,190.40"/>
        <lane id=":J0_0_2" index="2" speed="8.96" length="18.06" shape="109.60,201.60 104.70,200.90 101.20,198.80 99.10,195.30 98.40,190.40"/>
    </edge>
    <edge id=":J0_3" function="internal">
        <lane id=":J0_3_0" index="0" speed="3.90" length="2.58" shape="108.00,190.40 108.10,191.10 108.40,191.60 108.90,191.90 109.60,192.00"/>
        <lane id=":J0_3_1" index="1" speed="6.08" length="7.74" shape="104.80,190.40 105.10,192.50 106.00,194.00 107.50,194.90 109.60,195.20"/>
        <lane id=":J0_3_2" index="2" speed="7.66" length="12.90" shape="101.60,190.40 102.10,193.90 103.60,196.40 106.10,197.90 109.60,198.40"/>
    </edge>
    <edge id=":J1_0" function="internal">
        <lane id=":J1_0_0" index="0" speed="13.89" length="27.20" shape="513.60,208.00 486.40,208.00"/>
        <lane id=":J1_0_1" index="1" speed="13.89" length="27.20" shape="513.60,204.80 486.40,204.80"/>
        <lane id=":J1_0_2" index="2" speed="13.89" length="27.20" shape="513.60,201.60 486.40,201.60"/>
    </edge>
    <edge id=":J1_3" function="internal">
        <lane id=":J1_3_0" index="0" speed="10.88" length="6.03" shape="513.60,201.60 507.62,200.89"/>
        <lane id=":J1_3_1" index="1" speed="10.36" length="5.01" shape="513.60,201.60 508.64,200.89"/>
    </edge>
    <edge id=":J1_12" function="internal">
        <lane id=":J1_12_0" index="0" speed="10.88" length="21.12" shape="507.62,200.89 505.55,200.65 499.80,197.80 496.35,193.05 495.20,186.40"/>
    </edge>
    <edge id=":J1_13" function="internal">
        <lane id=":J1_13_0" index="0" speed="10.36" length="19.50" shape="508.64,200.89 506.95,200.65 502.20,197.80 499.35,193.05 498.40,186.40"/>
    </edge>
    <edge id=":J1_5" function="internal">
        <lane id=":J1_5_0" index="0" speed="6.51" length="9.03" shape="508.00,186.40 508.35,188.85 509.40,190.60 511.15,191.65 513.60,192.00"/>
    </edge>
    <edge id=":J1_6" function="internal">
        <lane id=":J1_6_0" index="0" speed="11.36" length="29.67" shape="504.80,186.40 503.65,194.45 500.20,200.20 494.45,203.65 486.40,204.80"/>
        <lane id=":J1_6_1" index="1" speed="10.36" length="24.51" shape="501.60,186.40 500.65,193.05 497.80,197.80 493.05,200.65 486.40,201.60"/>
    </edge>
    <edge id=":J1_8" function="internal">
        <lane id=":J1_8_0" index="0" speed="6.51" length="9.03" shape="486.40,192.00 488.85,191.65 490.60,190.60 491.65,188.85 492.00,186.40"/>
    </edge>
    <edge id=":J1_9" function="internal">
        <lane id=":J1_9_0" index="0" speed="13.89" length="27.20" shape="486.40,192.00 513.60,192.00"/>
        <lane id=":J1_9_1" index="1" speed="13.89" length="27.20" shape="486.40,195.20 513.60,195.20"/>
        <lane id=":J1_9_2" index="2" speed="13.89" length="27.20" shape="486.40,198.40 513.60,198.40"/>
    </edge>
    <edge id=":J10_0" function="internal">
        <lane id=":J10_0_0" index="0" speed="6.51" length="9.03" shape="292.00,-186.40 291.65,-188.85 290.60,-190.60 288.85,-191.65 286.40,-192.00"/>
    </edge>
    <edge id=":J10_1" function="internal">
        <lane id=":J10_1_0" index="0" speed="11.36" length="29.67" shape="295.20,-186.40 296.35,-194.45 299.80,-200.20 305.55,-203.65 313.60,-204.80"/>
        <lane id=":J10_1_1" index="1" speed="10.36" length="24.51" shape="298.40,-186.40 299.35,-193.05 302.20,-197.80 306.95,-200.65 313.60,-201.60"/>
    </edge>
    <edge id=":J10_3" function="internal">
        <lane id=":J10_3_0" index="0" speed="6.51" length="9.03" shape="313.60,-192.00 311.15,-191.65 309.40,-190.60 308.35,-188.85 308.00,-186.40"/>
    </edge>
    <edge id=":J10_4" function="internal">
        <lane id=":J10_4_0" index="0" speed="13.89" length="27.20" shape="313.60,-192.00 286.40,-192.00"/>
        <lane id=":J10_4_1" index="1" speed="13.89" length="27.20" shape="313.60,-195.20 286.40,-195.20"/>
        <lane id=":J10_4_2" index="2" speed="13.89" length="27.20" shape="313.60,-198.40 286.40,-198.40"/>
    </edge>
    <edge id=":J10_7" function="internal">
        <lane id=":J10_7_0" index="0" speed="13.89" length="27.20" shape="286.40,-208.00 313.60,-208.00"/>
        <lane id=":J10_7_1" index="1" speed="13.89" length="27.20" shape="286.40,-204.80 313.60,-204.80"/>
        <lane id=":J10_7_2" index="2" speed="13.89" length="27.20" shape="286.40,-201.60 313.60,-201.60"/>
    </edge>
    <edge id=":J10_10" function="internal">
        <lane id=":J10_10_0" index="0" speed="10.88" length="6.03" shape="286.40,-201.60 292.38,-200.89"/>
        <lane id=":J10_10_1" index="1" speed="10.36" length="5.01" shape="286.40,-201.60 291.36,-200.89"/>
    </edge>
    <edge id=":J10_12" function="internal">
        <lane id=":J10_12_0" index="0" speed="10.88" length="21.12" shape="292.38,-200.89 294.45,-200.65 300.20,-197.80 303.65,-193.05 304.80,-186.40"/>
    </edge>
    <edge id=":J10_13" function="internal">
        <lane id=":J10_13_0" index="0" speed="10.36" length="19.50" shape="291.36,-200.89 293.05,-200.65 297.80,-197.80 300.65,-193.05 301.60,-186.40"/>
    </edge>
    <edge id=":J11_0" function="internal">
        <lane id=":J11_0_0" index="0" speed="3.90" length="2.58" shape="892.00,-190.40 891.90,-191.10 891.60,-191.60 891.10,-191.90 890.40,-192.00"/>
        <lane id=":J11_0_1" index="1" speed="6.08" length="7.74" shape="895.20,-190.40 894.90,-192.50 894.00,-194.00 892.50,-194.90 890.40,-195.20"/>
        <lane id=":J11_0_2" index="2" speed="7.66" length="12.90" shape="898.40,-190.40 897.90,-193.90 896.40,-196.40 893.90,-197.90 890.40,-198.40"/>
    </edge>
    <edge id=":J11_3" function="internal">
        <lane id=":J11_3_0" index="0" speed="11.12" length="28.38" shape="890.40,-208.00 898.10,-206.90 903.60,-203.60 906.90,-198.10 908.00,-190.40"/>
        <lane id=":J11_3_1" index="1" speed="10.10" length="23.22" shape="890.40,-204.80 896.70,-203.90 901.20,-201.20 903.90,-196.70 904.80,-190.40"/>
        <lane id=":J11_3_2" index="2" speed="8.96" length="18.06" shape="890.40,-201.60 895.30,-200.90 898.80,-198.80 900.90,-195.30 901.60,-190.40"/>
    </edge>
    <edge id=":J12_0" function="internal">
        <lane id=":J12_0_0" index="0" speed="6.51" length="9.03" shape="692.00,-186.40 691.65,-188.85 690.60,-190.60 688.85,-191.65 686.40,-192.00"/>
    </edge>
    <edge id=":J12_1" function="internal">
        <lane id=":J12_1_0" index="0" speed="11.36" length="29.67" shape="695.20,-186.40 696.35,-194.45 699.80,-200.20 705.55,-203.65 713.60,-204.80"/>
        <lane id=":J12_1_1" index="1" speed="10.36" length="24.51" shape="698.40,-186.40 699.35,-193.05 702.20,-197.80 706.95,-200.65 713.60,-201.60"/>
    </edge>
    <edge id=":J12_3" function="internal">
        <lane id=":J12_3_0" index="0" speed="6.51" length="9.03" shape="713.60,-192.00 711.15,-191.65 709.40,-190.60 708.35,-188.85 708.00,-186.40"/>
    </edge>
    <edge id=":J12_4" function="internal">
        <lane id=":J12_4_0" index="0" speed="13.89" length="27.20" shape="713.60,-192.00 686.40,-192.00"/>
        <lane id=":J12_4_1" index="1" speed="13.89" length="27.20" shape="713.60,-195.20 686.40,-195.20"/>
        <lane id=":J12_4_2" index="2" speed="13.89" length="27.20" shape="713.60,-198.40 686.40,-198.40"/>
    </edge>
    <edge id=":J12_7" function="internal">
        <lane id=":J12_7_0" index="0" speed="13.89" length="27.20" shape="686.40,-208.00 713.60,-208.00"/>
        <lane id=":J12_7_1" index="1" speed="13.89" length="27.20" shape="686.40,-204.80 713.60,-204.80"/>
        <lane id=":J12_7_2" index="2" speed="13.89" length="27.20" shape="686.40,-201.60 713.60,-201.60"/>
    </edge>
    <edge id=":J12_10" function="internal">
        <lane id=":J12_10_0" index="0" speed="10.88" length="6.03" shape="686.40,-201.60 692.38,-200.89"/>
        <lane id=":J12_10_1" index="1" speed="10.36" length="5.01" shape="686.40,-201.60 691.36,-200.89"/>
    </edge>
    <edge id=":J12_12" function="internal">
        <lane id=":J12_12_0" index="0" speed="10.88" length="21.12" shape="692.38,-200.89 694.45,-200.65 700.20,-197.80 703.65,-193.05 704.80,-186.40"/>
    </edge>
    <edge id=":J12_13" function="internal">
        <lane id=":J12_13_0" index="0" speed="10.36" length="19.50" shape="691.36,-200.89 693.05,-200.65 697.80,-197.80 700.65,-193.05 701.60,-186.40"/>
    </edge>
    <edge id=":J13_0" function="internal">
        <lane id=":J13_0_0" index="0" speed="6.51" length="9.03" shape="492.00,-186.40 491.65,-188.85 490.60,-190.60 488.85,-191.65 486.40,-192.00"/>
    </edge>
    <edge id=":J13_1" function="internal">
        <lane id=":J13_1_0" index="0" speed="11.36" length="29.67" shape="495.20,-186.40 496.35,-194.45 499.80,-200.20 505.55,-203.65 513.60,-204.80"/>
        <lane id=":J13_1_1" index="1" speed="10.36" length="24.51" shape="498.40,-186.40 499.35,-193.05 502.20,-197.80 506.95,-200.65 513.60,-201.60"/>
    </edge>
    <edge id=":J13_3" function="internal">
        <lane id=":J13_3_0" index="0" speed="6.51" length="9.03" shape="513.60,-192.00 511.15,-191.65 509.40,-190.60 508.35,-188.85 508.00,-186.40"/>
    </edge>
    <edge id=":J13_4" function="internal">
        <lane id=":J13_4_0" index="0" speed="13.89" length="27.20" shape="513.60,-192.00 486.40,-192.00"/>
        <lane id=":J13_4_1" index="1" speed="13.89" length="27.20" shape="513.60,-195.20 486.40,-195.20"/>
        <lane id=":J13_4_2" index="2" speed="13.89" length="27.20" shape="513.60,-198.40 486.40,-198.40"/>
    </edge>
    <edge id=":J13_7" function="internal">
        <lane id=":J13_7_0" index="0" speed="13.89" length="27.20" shape="486.40,-208.00 513.60,-208.00"/>
        <lane id=":J13_7_1" index="1" speed="13.89" length="27.20" shape="486.40,-204.80 513.60,-204.80"/>
        <lane id=":J13_7_2" index="2" speed="13.89" length="27.20" shape="486.40,-201.60 513.60,-201.60"/>
    </edge>
    <edge id=":J13_10" function="internal">
        <lane id=":J13_10_0" index="0" speed="10.88" length="6.03" shape="486.40,-201.60 492.38,-200.89"/>
        <lane id=":J13_10_1" index="1" speed="10.36" length="5.01" shape="486.40,-201.60 491.36,-200.89"/>
    </edge>
    <edge id=":J13_12" function="internal">
        <lane id=":J13_12_0" index="0" speed="10.88" length="21.12" shape="492.38,-200.89 494.45,-200.65 500.20,-197.80 503.65,-193.05 504.80,-186.40"/>
    </edge>
    <edge id=":J13_13" function="internal">
        <lane id=":J13_13_0" index="0" speed="10.36" length="19.50" shape="491.36,-200.89 493.05,-200.65 497.80,-197.80 500.65,-193.05 501.60,-186.40"/>
    </edge>
    <edge id=":J14_0" function="internal">
        <lane id=":J14_0_0" index="0" speed="11.12" length="28.38" shape="92.00,-190.40 93.10,-198.10 96.40,-203.60 101.90,-206.90 109.60,-208.00"/>
        <lane id=":J14_0_1" index="1" speed="10.10" length="23.22" shape="95.20,-190.40 96.10,-196.70 98.80,-201.20 103.30,-203.90 109.60,-204.80"/>
        <lane id=":J14_0_2" index="2" speed="8.96" length="18.06" shape="98.40,-190.40 99.10,-195.30 101.20,-198.80 104.70,-200.90 109.60,-201.60"/>
    </edge>
    <edge id=":J14_3" function="internal">
        <lane id=":J14_3_0" index="0" speed="3.90" length="2.58" shape="109.60,-192.00 108.90,-191.90 108.40,-191.60 108.10,-191.10 108.00,-190.40"/>
        <lane id=":J14_3_1" index="1" speed="6.08" length="7.74" shape="109.60,-195.20 107.50,-194.90 106.00,-194.00 105.10,-192.50 104.80,-190.40"/>
        <lane id=":J14_3_2" index="2" speed="7.66" length="12.90" shape="109.60,-198.40 106.10,-197.90 103.60,-196.40 102.10,-193.90 101.60,-190.40"/>
    </edge>
    <edge id=":J2_0" function="internal">
        <lane id=":J2_0_0" index="0" speed="6.51" length="9.03" shape="692.00,13.60 691.65,11.15 690.60,9.40 688.85,8.35 686.40,8.00"/>
    </edge>
    <edge id=":J2_1" function="internal">
        <lane id=":J2_1_0" index="0" speed="13.89" length="27.20" shape="692.00,13.60 692.00,-13.60"/>
        <lane id=":J2_1_1" index="1" speed="13.89" length="27.20" shape="695.20,13.60 695.20,-13.60"/>
        <lane id=":J2_1_2" index="2" speed="13.89" length="27.20" shape="698.40,13.60 698.40,-13.60"/>
    </edge>
    <edge id=":J2_4" function="internal">
        <lane id=":J2_4_0" index="0" speed="10.36" length="5.01" shape="698.40,13.60 699.11,8.64"/>
    </edge>
    <edge id=":J2_20" function="internal">
        <lane id=":J2_20_0" index="0" speed="10.36" length="19.50" shape="699.11,8.64 699.35,6.95 702.20,2.20 706.95,-0.65 713.60,-1.60"/>
    </edge>
    <edge id=":J2_5" function="internal">
        <lane id=":J2_5_0" index="0" speed="6.51" length="9.03" shape="713.60,8.00 711.15,8.35 709.40,9.40 708.35,11.15 708.00,13.60"/>
    </edge>
    <edge id=":J2_6" function="internal">
        <lane id=":J2_6_0" index="0" speed="13.89" length="27.20" shape="713.60,8.00 686.40,8.00"/>
        <lane id=":J2_6_1" index="1" speed="13.89" length="27.20" shape="713.60,4.80 686.40,4.80"/>
        <lane id=":J2_6_2" index="2" speed="13.89" length="27.20" shape="713.60,1.60 686.40,1.60"/>
    </edge>
    <edge id=":J2_9" function="internal">
        <lane id=":J2_9_0" index="0" speed="10.36" length="5.01" shape="713.60,1.60 708.64,0.89"/>
    </edge>
    <edge id=":J2_21" function="internal">
        <lane id=":J2_21_0" index="0" speed="10.36" length="19.50" shape="708.64,0.89 706.95,0.65 702.20,-2.20 699.35,-6.95 698.40,-13.60"/>
    </edge>
    <edge id=":J2_10" function="internal">
        <lane id=":J2_10_0" index="0" speed="6.51" length="9.03" shape="708.00,-13.60 708.35,-11.15 709.40,-9.40 711.15,-8.35 713.60,-8.00"/>
    </edge>
    <edge id=":J2_11" function="internal">
        <lane id=":J2_11_0" index="0" speed="13.89" length="27.20" shape="708.00,-13.60 708.00,13.60"/>
        <lane id=":J2_11_1" index="1" speed="13.89" length="27.20" shape="704.80,-13.60 704.80,13.60"/>
        <lane id=":J2_11_2" index="2" speed="13.89" length="27.20" shape="701.60,-13.60 701.60,13.60"/>
    </edge>
    <edge id=":J2_14" function="internal">
        <lane id=":J2_14_0" index="0" speed="10.36" length="5.01" shape="701.60,-13.60 700.89,-8.64"/>
    </edge>
    <edge id=":J2_22" function="internal">
        <lane id=":J2_22_0" index="0" speed="10.36" length="19.50" shape="700.89,-8.64 700.65,-6.95 697.80,-2.20 693.05,0.65 686.40,1.60"/>
    </edge>
    <edge id=":J2_15" function="internal">
        <lane id=":J2_15_0" index="0" speed="6.51" length="9.03" shape="686.40,-8.00 688.85,-8.35 690.60,-9.40 691.65,-11.15 692.00,-13.60"/>
    </edge>
    <edge id=":J2_16" function="internal">
        <lane id=":J2_16_0" index="0" speed="13.89" length="27.20" shape="686.40,-8.00 713.60,-8.00"/>
        <lane id=":J2_16_1" index="1" speed="13.89" length="27.20" shape="686.40,-4.80 713.60,-4.80"/>
        <lane id=":J2_16_2" index="2" speed="13.89" length="27.20" shape="686.40,-1.60 713.60,-1.60"/>
    </edge>
    <edge id=":J2_19" function="internal">
        <lane id=":J2_19_0" index="0" speed="10.36" length="5.01" shape="686.40,-1.60 691.36,-0.89"/>
    </edge>
    <edge id=":J2_23" function="internal">
        <lane id=":J2_23_0" index="0" speed="10.36" length="19.50" shape="691.36,-0.89 693.05,-0.65 697.80,2.20 700.65,6.95 701.60,13.60"/>
    </edge>
    <edge id=":J3_0" function="internal">
        <lane id=":J3_0_0" index="0" speed="13.89" length="27.20" shape="713.60,208.00 686.40,208.00"/>
        <lane id=":J3_0_1" index="1" speed="13.89" length="27.20" shape="713.60,204.80 686.40,204.80"/>
        <lane id=":J3_0_2" index="2" speed="13.89" length="27.20" shape="713.60,201.60 686.40,201.60"/>
    </edge>
    <edge id=":J3_3" function="internal">
        <lane id=":J3_3_0" index="0" speed="10.88" length="6.03" shape="713.60,201.60 707.62,200.89"/>
        <lane id=":J3_3_1" index="1" speed="10.36" length="5.01" shape="713.60,201.60 708.64,200.89"/>
    </edge>
    <edge id=":J3_12" function="internal">
        <lane id=":J3_12_0" index="0" speed="10.88" length="21.12" shape="707.62,200.89 705.55,200.65 699.80,197.80 696.35,193.05 695.20,186.40"/>
    </edge>
    <edge id=":J3_13" function="internal">
        <lane id=":J3_13_0" index="0" speed="10.36" length="19.50" shape="708.64,200.89 706.95,200.65 702.20,197.80 699.35,193.05 698.40,186.40"/>
    </edge>
    <edge id=":J3_5" function="internal">
        <lane id=":J3_5_0" index="0" speed="6.51" length="9.03" shape="708.00,186.40 708.35,188.85 709.40,190.60 711.15,191.65 713.60,192.00"/>
    </edge>
    <edge id=":J3_6" function="internal">
        <lane id=":J3_6_0" index="0" speed="11.36" length="29.67" shape="704.80,186.40 703.65,194.45 700.20,200.20 694.45,203.65 686.40,204.80"/>
        <lane id=":J3_6_1" index="1" speed="10.36" length="24.51" shape="701.60,186.40 700.65,193.05 697.80,197.80 693.05,200.65 686.40,201.60"/>
    </edge>
    <edge id=":J3_8" function="internal">
        <lane id=":J3_8_0" index="0" speed="6.51" length="9.03" shape="686.40,192.00 688.85,191.65 690.60,190.60 691.65,188.85 692.00,186.40"/>
    </edge>
    <edge id=":J3_9" function="internal">
        <lane id=":J3_9_0" index="0" speed="13.89" length="27.20" shape="686.40,192.00 713.60,192.00"/>
        <lane id=":J3_9_1" index="1" speed="13.89" length="27.20" shape="686.40,195.20 713.60,195.20"/>
        <lane id=":J3_9_2" index="2" speed="13.89" length="27.20" shape="686.40,198.40 713.60,198.40"/>
    </edge>
    <edge id=":J4_0" function="internal">
        <lane id=":J4_0_0" index="0" speed="11.12" length="28.38" shape="908.00,190.40 906.90,198.10 903.60,203.60 898.10,206.90 890.40,208.00"/>
        <lane id=":J4_0_1" index="1" speed="10.10" length="23.22" shape="904.80,190.40 903.90,196.70 901.20,201.20 896.70,203.90 890.40,204.80"/>
        <lane id=":J4_0_2" index="2" speed="8.96" length="18.06" shape="901.60,190.40 900.90,195.30 898.80,198.80 895.30,200.90 890.40,201.60"/>
    </edge>
    <edge id=":J4_3" function="internal">
        <lane id=":J4_3_0" index="0" speed="3.90" length="2.58" shape="890.40,192.00 891.10,191.90 891.60,191.60 891.90,191.10 892.00,190.40"/>
        <lane id=":J4_3_1" index="1" speed="6.08" length="7.74" shape="890.40,195.20 892.50,194.90 894.00,194.00 894.90,192.50 895.20,190.40"/>
        <lane id=":J4_3_2" index="2" speed="7.66" length="12.90" shape="890.40,198.40 893.90,197.90 896.40,196.40 897.90,193.90 898.40,190.40"/>
    </edge>
    <edge id=":J5_0" function="internal">
        <lane id=":J5_0_0" index="0" speed="6.51" length="9.03" shape="892.00,13.60 891.65,11.15 890.60,9.40 888.85,8.35 886.40,8.00"/>
    </edge>
    <edge id=":J5_1" function="internal">
        <lane id=":J5_1_0" index="0" speed="13.89" length="27.20" shape="892.00,13.60 892.00,-13.60"/>
        <lane id=":J5_1_1" index="1" speed="13.89" length="27.20" shape="895.20,13.60 895.20,-13.60"/>
        <lane id=":J5_1_2" index="2" speed="13.89" length="27.20" shape="898.40,13.60 898.40,-13.60"/>
    </edge>
    <edge id=":J5_4" function="internal">
        <lane id=":J5_4_0" index="0" speed="13.89" length="27.20" shape="908.00,-13.60 908.00,13.60"/>
        <lane id=":J5_4_1" index="1" speed="13.89" length="27.20" shape="904.80,-13.60 904.80,13.60"/>
        <lane id=":J5_4_2" index="2" speed="13.89" length="27.20" shape="901.60,-13.60 901.60,13.60"/>
    </edge>
    <edge id=":J5_7" function="internal">
        <lane id=":J5_7_0" index="0" speed="10.88" length="6.03" shape="901.60,-13.60 900.89,-7.62"/>
        <lane id=":J5_7_1" index="1" speed="10.36" length="5.01" shape="901.60,-13.60 900.89,-8.64"/>
    </edge>
    <edge id=":J5_12" function="internal">
        <lane id=":J5_12_0" index="0" speed="10.88" length="21.12" shape="900.89,-7.62 900.65,-5.55 897.80,0.20 893.05,3.65 886.40,4.80"/>
    </edge>
    <edge id=":J5_13" function="internal">
        <lane id=":J5_13_0" index="0" speed="10.36" length="19.50" shape="900.89,-8.64 900.65,-6.95 897.80,-2.20 893.05,0.65 886.40,1.60"/>
    </edge>
    <edge id=":J5_9" function="internal">
        <lane id=":J5_9_0" index="0" speed="6.51" length="9.03" shape="886.40,-8.00 888.85,-8.35 890.60,-9.40 891.65,-11.15 892.00,-13.60"/>
    </edge>
    <edge id=":J5_10" function="internal">
        <lane id=":J5_10_0" index="0" speed="11.36" length="29.67" shape="886.40,-4.80 894.45,-3.65 900.20,-0.20 903.65,5.55 904.80,13.60"/>
        <lane id=":J5_10_1" index="1" speed="10.36" length="24.51" shape="886.40,-1.60 893.05,-0.65 897.80,2.20 900.65,6.95 901.60,13.60"/>
    </edge>
    <edge id=":J6_0" function="internal">
        <lane id=":J6_0_0" index="0" speed="13.89" length="27.20" shape="92.00,13.60 92.00,-13.60"/>
        <lane id=":J6_0_1" index="1" speed="13.89" length="27.20" shape="95.20,13.60 95.20,-13.60"/>
        <lane id=":J6_0_2" index="2" speed="13.89" length="27.20" shape="98.40,13.60 98.40,-13.60"/>
    </edge>
    <edge id=":J6_3" function="internal">
        <lane id=":J6_3_0" index="0" speed="10.88" length="6.03" shape="98.40,13.60 99.11,7.62"/>
        <lane id=":J6_3_1" index="1" speed="10.36" length="5.01" shape="98.40,13.60 99.11,8.64"/>
    </edge>
    <edge id=":J6_12" function="internal">
        <lane id=":J6_12_0" index="0" speed="10.88" length="21.12" shape="99.11,7.62 99.35,5.55 102.20,-0.20 106.95,-3.65 113.60,-4.80"/>
    </edge>
    <edge id=":J6_13" function="internal">
        <lane id=":J6_13_0" index="0" speed="10.36" length="19.50" shape="99.11,8.64 99.35,6.95 102.20,2.20 106.95,-0.65 113.60,-1.60"/>
    </edge>
    <edge id=":J6_5" function="internal">
        <lane id=":J6_5_0" index="0" speed="6.51" length="9.03" shape="113.60,8.00 111.15,8.35 109.40,9.40 108.35,11.15 108.00,13.60"/>
    </edge>
    <edge id=":J6_6" function="internal">
        <lane id=":J6_6_0" index="0" speed="11.36" length="29.67" shape="113.60,4.80 105.55,3.65 99.80,0.20 96.35,-5.55 95.20,-13.60"/>
        <lane id=":J6_6_1" index="1" speed="10.36" length="24.51" shape="113.60,1.60 106.95,0.65 102.20,-2.20 99.35,-6.95 98.40,-13.60"/>
    </edge>
    <edge id=":J6_8" function="internal">
        <lane id=":J6_8_0" index="0" speed="6.51" length="9.03" shape="108.00,-13.60 108.35,-11.15 109.40,-9.40 111.15,-8.35 113.60,-8.00"/>
    </edge>
    <edge id=":J6_9" function="internal">
        <lane id=":J6_9_0" index="0" speed="13.89" length="27.20" shape="108.00,-13.60 108.00,13.60"/>
        <lane id=":J6_9_1" index="1" speed="13.89" length="27.20" shape="104.80,-13.60 104.80,13.60"/>
        <lane id=":J6_9_2" index="2" speed="13.89" length="27.20" shape="101.60,-13.60 101.60,13.60"/>
    </edge>
    <edge id=":J7_0" function="internal">
        <lane id=":J7_0_0" index="0" speed="6.51" length="9.03" shape="292.00,13.60 291.65,11.15 290.60,9.40 288.85,8.35 286.40,8.00"/>
    </edge>
    <edge id=":J7_1" function="internal">
        <lane id=":J7_1_0" index="0" speed="13.89" length="27.20" shape="292.00,13.60 292.00,-13.60"/>
        <lane id=":J7_1_1" index="1" speed="13.89" length="27.20" shape="295.20,13.60 295.20,-13.60"/>
        <lane id=":J7_1_2" index="2" speed="13.89" length="27.20" shape="298.40,13.60 298.40,-13.60"/>
    </edge>
    <edge id=":J7_4" function="internal">
        <lane id=":J7_4_0" index="0" speed="10.36" length="5.01" shape="298.40,13.60 299.11,8.64"/>
    </edge>
    <edge id=":J7_20" function="internal">
        <lane id=":J7_20_0" index="0" speed="10.36" length="19.50" shape="299.11,8.64 299.35,6.95 302.20,2.20 306.95,-0.65 313.60,-1.60"/>
    </edge>
    <edge id=":J7_5" function="internal">
        <lane id=":J7_5_0" index="0" speed="6.51" length="9.03" shape="313.60,8.00 311.15,8.35 309.40,9.40 308.35,11.15 308.00,13.60"/>
    </edge>
    <edge id=":J7_6" function="internal">
        <lane id=":J7_6_0" index="0" speed="13.89" length="27.20" shape="313.60,8.00 286.40,8.00"/>
        <lane id=":J7_6_1" index="1" speed="13.89" length="27.20" shape="313.60,4.80 286.40,4.80"/>
        <lane id=":J7_6_2" index="2" speed="13.89" length="27.20" shape="313.60,1.60 286.40,1.60"/>
    </edge>
    <edge id=":J7_9" function="internal">
        <lane id=":J7_9_0" index="0" speed="10.36" length="5.01" shape="313.60,1.60 308.64,0.89"/>
    </edge>
    <edge id=":J7_21" function="internal">
        <lane id=":J7_21_0" index="0" speed="10.36" length="19.50" shape="308.64,0.89 306.95,0.65 302.20,-2.20 299.35,-6.95 298.40,-13.60"/>
    </edge>
    <edge id=":J7_10" function="internal">
        <lane id=":J7_10_0" index="0" speed="6.51" length="9.03" shape="308.00,-13.60 308.35,-11.15 309.40,-9.40 311.15,-8.35 313.60,-8.00"/>
    </edge>
    <edge id=":J7_11" function="internal">
        <lane id=":J7_11_0" index="0" speed="13.89" length="27.20" shape="308.00,-13.60 308.00,13.60"/>
        <lane id=":J7_11_1" index="1" speed="13.89" length="27.20" shape="304.80,-13.60 304.80,13.60"/>
        <lane id=":J7_11_2" index="2" speed="13.89" length="27.20" shape="301.60,-13.60 301.60,13.60"/>
    </edge>
    <edge id=":J7_14" function="internal">
        <lane id=":J7_14_0" index="0" speed="10.36" length="5.01" shape="301.60,-13.60 300.89,-8.64"/>
    </edge>
    <edge id=":J7_22" function="internal">
        <lane id=":J7_22_0" index="0" speed="10.36" length="19.50" shape="300.89,-8.64 300.65,-6.95 297.80,-2.20 293.05,0.65 286.40,1.60"/>
    </edge>
    <edge id=":J7_15" function="internal">
        <lane id=":J7_15_0" index="0" speed="6.51" length="9.03" shape="286.40,-8.00 288.85,-8.35 290.60,-9.40 291.65,-11.15 292.00,-13.60"/>
    </edge>
    <edge id=":J7_16" function="internal">
        <lane id=":J7_16_0" index="0" speed="13.89" length="27.20" shape="286.40,-8.00 313.60,-8.00"/>
        <lane id=":J7_16_1" index="1" speed="13.89" length="27.20" shape="286.40,-4.80 313.60,-4.80"/>
        <lane id=":J7_16_2" index="2" speed="13.89" length="27.20" shape="286.40,-1.60 313.60,-1.60"/>
    </edge>
    <edge id=":J7_19" function="internal">
        <lane id=":J7_19_0" index="0" speed="10.36" length="5.01" shape="286.40,-1.60 291.36,-0.89"/>
    </edge>
    <edge id=":J7_23" function="internal">
        <lane id=":J7_23_0" index="0" speed="10.36" length="19.50" shape="291.36,-0.89 293.05,-0.65 297.80,2.20 300.65,6.95 301.60,13.60"/>
    </edge>
    <edge id=":J8_0" function="internal">
        <lane id=":J8_0_0" index="0" speed="6.51" length="9.03" shape="492.00,13.60 491.65,11.15 490.60,9.40 488.85,8.35 486.40,8.00"/>
    </edge>
    <edge id=":J8_1" function="internal">
        <lane id=":J8_1_0" index="0" speed="13.89" length="27.20" shape="492.00,13.60 492.00,-13.60"/>
        <lane id=":J8_1_1" index="1" speed="13.89" length="27.20" shape="495.20,13.60 495.20,-13.60"/>
        <lane id=":J8_1_2" index="2" speed="13.89" length="27.20" shape="498.40,13.60 498.40,-13.60"/>
    </edge>
    <edge id=":J8_4" function="internal">
        <lane id=":J8_4_0" index="0" speed="10.36" length="5.01" shape="498.40,13.60 499.11,8.64"/>
    </edge>
    <edge id=":J8_20" function="internal">
        <lane id=":J8_20_0" index="0" speed="10.36" length="19.50" shape="499.11,8.64 499.35,6.95 502.20,2.20 506.95,-0.65 513.60,-1.60"/>
    </edge>
    <edge id=":J8_5" function="internal">
        <lane id=":J8_5_0" index="0" speed="6.51" length="9.03" shape="513.60,8.00 511.15,8.35 509.40,9.40 508.35,11.15 508.00,13.60"/>
    </edge>
    <edge id=":J8_6" function="internal">
        <lane id=":J8_6_0" index="0" speed="13.89" length="27.20" shape="513.60,8.00 486.40,8.00"/>
        <lane id=":J8_6_1" index="1" speed="13.89" length="27.20" shape="513.60,4.80 486.40,4.80"/>
        <lane id=":J8_6_2" index="2" speed="13.89" length="27.20" shape="513.60,1.60 486.40,1.60"/>
    </edge>
    <edge id=":J8_9" function="internal">
        <lane id=":J8_9_0" index="0" speed="10.36" length="5.01" shape="513.60,1.60 508.64,0.89"/>
    </edge>
    <edge id=":J8_21" function="internal">
        <lane id=":J8_21_0" index="0" speed="10.36" length="19.50" shape="508.64,0.89 506.95,0.65 502.20,-2.20 499.35,-6.95 498.40,-13.60"/>
    </edge>
    <edge id=":J8_10" function="internal">
        <lane id=":J8_10_0" index="0" speed="6.51" length="9.03" shape="508.00,-13.60 508.35,-11.15 509.40,-9.40 511.15,-8.35 513.60,-8.00"/>
    </edge>
    <edge id=":J8_11" function="internal">
        <lane id=":J8_11_0" index="0" speed="13.89" length="27.20" shape="508.00,-13.60 508.00,13.60"/>