<?xml version="1.0" encoding="UTF-8"?>

<!-- generated on 2023-01-09 17:15:35 by Eclipse SUMO netedit Version 1.14.1
<configuration xmlns:xsi="http://www.w3.org/2001/XMLSchema-instance" xsi:noNamespaceSchemaLocation="http://sumo.dlr.de/xsd/netconvertConfiguration.xsd">

    <input>
        <sumo-net-file value="F:\Rachis%20systems\congestion-control-2\Networks\5-intersections\5-intersections.net.xml"/>
    </input>

    <output>
        <output-file value="F:\Rachis%20systems\congestion-control-2\Networks\5-intersections\5-intersections.net.xml"/>
    </output>

    <processing>
        <geometry.min-radius.fix.railways value="false"/>
        <geometry.max-grade.fix value="false"/>
        <offset.disable-normalization value="true"/>
        <lefthand value="false"/>
    </processing>

    <junctions>
        <no-turnarounds value="true"/>
        <junctions.corner-detail value="5"/>
        <junctions.limit-turn-speed value="5.5"/>
        <rectangular-lane-cut value="false"/>
    </junctions>

    <pedestrian>
        <walkingareas value="false"/>
    </pedestrian>

</configuration>
-->

<net version="1.9" junctionCornerDetail="5" limitTurnSpeed="5.50" xmlns:xsi="http://www.w3.org/2001/XMLSchema-instance" xsi:noNamespaceSchemaLocation="http://sumo.dlr.de/xsd/net_file.xsd">

    <location netOffset="0.00,0.00" convBoundary="-100.00,-300.00,500.00,300.00" origBoundary="-10000000000.00,-10000000000.00,10000000000.00,10000000000.00" projParameter="!"/>

    <edge id=":0_0" function="internal">
        <lane id=":0_0_0" index="0" speed="6.51" length="9.03" shape="198.40,7.20 198.05,4.75 197.00,3.00 195.25,1.95 192.80,1.60"/>
    </edge>
    <edge id=":0_1" function="internal">
        <lane id=":0_1_0" index="0" speed="13.89" length="14.40" shape="198.40,7.20 198.40,-7.20"/>
    </edge>
    <edge id=":0_2" function="internal">
        <lane id=":0_2_0" index="0" speed="6.51" length="9.03" shape="207.20,1.60 204.75,1.95 203.00,3.00 201.95,4.75 201.60,7.20"/>
    </edge>
    <edge id=":0_3" function="internal">
        <lane id=":0_3_0" index="0" speed="13.89" length="14.40" shape="207.20,1.60 192.80,1.60"/>
    </edge>
    <edge id=":0_4" function="internal">
        <lane id=":0_4_0" index="0" speed="6.51" length="9.03" shape="201.60,-7.20 201.95,-4.75 203.00,-3.00 204.75,-1.95 207.20,-1.60"/>
    </edge>
    <edge id=":0_5" function="internal">
        <lane id=":0_5_0" index="0" speed="13.89" length="14.40" shape="201.60,-7.20 201.60,7.20"/>
    </edge>
    <edge id=":0_6" function="internal">
        <lane id=":0_6_0" index="0" speed="6.51" length="9.03" shape="192.80,-1.60 195.25,-1.95 197.00,-3.00 198.05,-4.75 198.40,-7.20"/>
    </edge>
    <edge id=":0_7" function="internal">
        <lane id=":0_7_0" index="0" speed="13.89" length="14.40" shape="192.80,-1.60 207.20,-1.60"/>
    </edge>
    <edge id=":1_0" function="internal">
        <lane id=":1_0_0" index="0" speed="6.51" length="9.03" shape="198.40,207.20 198.05,204.75 197.00,203.00 195.25,201.95 192.80,201.60"/>
    </edge>
    <edge id=":1_1" function="internal">
        <lane id=":1_1_0" index="0" speed="13.89" length="14.40" shape="198.40,207.20 198.40,192.80"/>
    </edge>
    <edge id=":1_2" function="internal">
        <lane id=":1_2_0" index="0" speed="6.51" length="9.03" shape="207.20,201.60 204.75,201.95 203.00,203.00 201.95,204.75 201.60,207.20"/>
    </edge>
    <edge id=":1_3" function="internal">
        <lane id=":1_3_0" index="0" speed="13.89" length="14.40" shape="207.20,201.60 192.80,201.60"/>
    </edge>
    <edge id=":1_4" function="internal">
        <lane id=":1_4_0" index="0" speed="6.51" length="9.03" shape="201.60,192.80 201.95,195.25 203.00,197.00 204.75,198.05 207.20,198.40"/>
    </edge>
    <edge id=":1_5" function="internal">
        <lane id=":1_5_0" index="0" speed="13.89" length="14.40" shape="201.60,192.80 201.60,207.20"/>
    </edge>
    <edge id=":1_6" function="internal">
        <lane id=":1_6_0" index="0" speed="6.51" length="9.03" shape="192.80,198.40 195.25,198.05 197.00,197.00 198.05,195.25 198.40,192.80"/>
    </edge>
    <edge id=":1_7" function="internal">
        <lane id=":1_7_0" index="0" speed="13.89" length="14.40" shape="192.80,198.40 207.20,198.40"/>
    </edge>
    <edge id=":2_0" function="internal">
        <lane id=":2_0_0" index="0" speed="6.51" length="9.03" shape="398.40,7.20 398.05,4.75 397.00,3.00 395.25,1.95 392.80,1.60"/>
    </edge>
    <edge id=":2_1" function="internal">
        <lane id=":2_1_0" index="0" speed="13.89" length="14.40" shape="398.40,7.20 398.40,-7.20"/>
    </edge>
    <edge id=":2_2" function="internal">
        <lane id=":2_2_0" index="0" speed="6.51" length="9.03" shape="407.20,1.60 404.75,1.95 403.00,3.00 401.95,4.75 401.60,7.20"/>
    </edge>
    <edge id=":2_3" function="internal">
        <lane id=":2_3_0" index="0" speed="13.89" length="14.40" shape="407.20,1.60 392.80,1.60"/>
    </edge>
    <edge id=":2_4" function="internal">
        <lane id=":2_4_0" index="0" speed="6.51" length="9.03" shape="401.60,-7.20 401.95,-4.75 403.00,-3.00 404.75,-1.95 407.20,-1.60"/>
    </edge>
    <edge id=":2_5" function="internal">
        <lane id=":2_5_0" index="0" speed="13.89" length="14.40" shape="401.60,-7.20 401.60,7.20"/>
    </edge>
    <edge id=":2_6" function="internal">
        <lane id=":2_6_0" index="0" speed="6.51" length="9.03" shape="392.80,-1.60 395.25,-1.95 397.00,-3.00 398.05,-4.75 398.40,-7.20"/>
    </edge>
    <edge id=":2_7" function="internal">
        <lane id=":2_7_0" index="0" speed="13.89" length="14.40" shape="392.80,-1.60 407.20,-1.60"/>
    </edge>
    <edge id=":3_0" function="internal">
        <lane id=":3_0_0" index="0" speed="6.51" length="9.03" shape="198.40,-192.80 198.05,-195.25 197.00,-197.00 195.25,-198.05 192.80,-198.40"/>
    </edge>
    <edge id=":3_1" function="internal">
        <lane id=":3_1_0" index="0" speed="13.89" length="14.40" shape="198.40,-192.80 198.40,-207.20"/>
    </edge>
    <edge id=":3_2" function="internal">
        <lane id=":3_2_0" index="0" speed="6.51" length="9.03" shape="207.20,-198.40 204.75,-198.05 203.00,-197.00 201.95,-195.25 201.60,-192.80"/>
    </edge>
    <edge id=":3_3" function="internal">
        <lane id=":3_3_0" index="0" speed="13.89" length="14.40" shape="207.20,-198.40 192.80,-198.40"/>
    </edge>
    <edge id=":3_4" function="internal">
        <lane id=":3_4_0" index="0" speed="6.51" length="9.03" shape="201.60,-207.20 201.95,-204.75 203.00,-203.00 204.75,-201.95 207.20,-201.60"/>
    </edge>
    <edge id=":3_5" function="internal">
        <lane id=":3_5_0" index="0" speed="13.89" length="14.40" shape="201.60,-207.20 201.60,-192.80"/>
    </edge>
    <edge id=":3_6" function="internal">
        <lane id=":3_6_0" index="0" speed="6.51" length="9.03" shape="192.80,-201.60 195.25,-201.95 197.00,-203.00 198.05,-204.75 198.40,-207.20"/>
    </edge>
    <edge id=":3_7" function="internal">
        <lane id=":3_7_0" index="0" speed="13.89" length="14.40" shape="192.80,-201.60 207.20,-201.60"/>
    </edge>
    <edge id=":4_0" function="internal">
        <lane id=":4_0_0" index="0" speed="6.51" length="9.03" shape="-1.60,7.20 -1.95,4.75 -3.00,3.00 -4.75,1.95 -7.20,1.60"/>
    </edge>
    <edge id=":4_1" function="internal">
        <lane id=":4_1_0" index="0" speed="13.89" length="14.40" shape="-1.60,7.20 -1.60,-7.20"/>
    </edge>
    <edge id=":4_2" function="internal">
        <lane id=":4_2_0" index="0" speed="6.51" length="9.03" shape="7.20,1.60 4.75,1.95 3.00,3.00 1.95,4.75 1.60,7.20"/>
    </edge>
    <edge id=":4_3" function="internal">
        <lane id=":4_3_0" index="0" speed="13.89" length="14.40" shape="7.20,1.60 -7.20,1.60"/>
    </edge>
    <edge id=":4_4" function="internal">
        <lane id=":4_4_0" index="0" speed="6.51" length="9.03" shape="1.60,-7.20 1.95,-4.75 3.00,-3.00 4.75,-1.95 7.20,-1.60"/>
    </edge>
    <edge id=":4_5" function="internal">
        <lane id=":4_5_0" index="0" speed="13.89" length="14.40" shape="1.60,-7.20 1.60,7.20"/>
    </edge>
    <edge id=":4_6" function="internal">
        <lane id=":4_6_0" index="0" speed="6.51" length="9.03" shape="-7.20,-1.60 -4.75,-1.95 -3.00,-3.00 -1.95,-4.75 -1.60,-7.20"/>
    </edge>
    <edge id=":4_7" function="internal">
        <lane id=":4_7_0" index="0" speed="13.89" length="14.40" shape="-7.20,-1.60 7.20,-1.60"/>
    </edge>
    <edge id=":J14_0" function="internal">
        <lane id=":J14_0_0" index="0" speed="13.89" length="17.05" shape="304.90,197.37 292.84,209.42"/>
    </edge>
    <edge id=":J14_1" function="internal">
        <lane id=":J14_1_0" index="0" speed="13.71" length="3.32" shape="304.90,197.37 302.09,199.15"/>
    </edge>
    <edge id=":J14_6" function="internal">
        <lane id=":J14_6_0" index="0" speed="13.71" length="14.16" shape="302.09,199.15 301.51,199.52 297.13,200.81 292.48,201.44 288.27,201.60"/>
    </edge>
    <edge id=":J14_2" function="internal">
        <lane id=":J14_2_0" index="0" speed="12.73" length="15.02" shape="288.27,198.40 293.32,198.19 297.40,197.58 300.50,196.55 302.63,195.10"/>
    </edge>
    <edge id=":J14_3" function="internal">
        <lane id=":J14_3_0" index="0" speed="7.42" length="19.31" shape="288.27,198.40 294.41,199.09 297.21,201.16 296.69,204.60 292.84,209.42"/>
    </edge>
    <edge id=":J14_4" function="internal">
        <lane id=":J14_4_0" index="0" speed="5.47" length="9.74" shape="290.58,207.16 292.52,204.73 292.78,202.99 291.37,201.95 288.27,201.60"/>
    </edge>
    <edge id=":J14_5" function="internal">
        <lane id=":J14_5_0" index="0" speed="13.89" length="17.05" shape="290.58,207.16 302.63,195.10"/>
    </edge>
    <edge id=":J15_0" function="internal">
        <lane id=":J15_0_0" index="0" speed="13.89" length="17.05" shape="107.16,209.42 95.10,197.37"/>
    </edge>
    <edge id=":J15_1" function="internal">
        <lane id=":J15_1_0" index="0" speed="7.42" length="6.00" shape="107.16,209.42 103.42,204.73"/>
    </edge>
    <edge id=":J15_6" function="internal">
        <lane id=":J15_6_0" index="0" speed="7.42" length="13.30" shape="103.42,204.73 103.31,204.60 102.79,201.16 105.59,199.09 111.73,198.40"/>
    </edge>
    <edge id=":J15_2" function="internal">
        <lane id=":J15_2_0" index="0" speed="5.47" length="9.74" shape="111.73,201.60 108.63,201.95 107.22,202.99 107.48,204.73 109.42,207.16"/>
    </edge>
    <edge id=":J15_3" function="internal">
        <lane id=":J15_3_0" index="0" speed="13.73" length="17.52" shape="111.73,201.60 106.04,201.34 101.38,200.54 97.73,199.22 95.10,197.37"/>
    </edge>
    <edge id=":J15_4" function="internal">
        <lane id=":J15_4_0" index="0" speed="12.73" length="15.02" shape="97.37,195.10 99.50,196.55 102.60,197.58 106.68,198.19 111.73,198.40"/>
    </edge>
    <edge id=":J15_5" function="internal">
        <lane id=":J15_5_0" index="0" speed="13.89" length="17.05" shape="97.37,195.10 109.42,207.16"/>
    </edge>
    <edge id=":J16_0" function="internal">
        <lane id=":J16_0_0" index="0" speed="9.73" length="21.49" shape="209.42,292.84 204.71,296.37 200.00,297.55 195.29,296.37 190.58,292.84"/>
    </edge>
    <edge id=":J16_1" function="internal">
        <lane id=":J16_1_0" index="0" speed="7.42" length="9.49" shape="209.42,292.84 204.60,296.69 201.32,297.19"/>
    </edge>
    <edge id=":J16_6" function="internal">
        <lane id=":J16_6_0" index="0" speed="7.42" length="9.82" shape="201.32,297.19 201.16,297.21 199.09,294.41 198.40,288.27"/>
    </edge>
    <edge id=":J16_2" function="internal">
        <lane id=":J16_2_0" index="0" speed="5.47" length="9.74" shape="201.60,288.27 201.95,291.37 202.99,292.78 204.73,292.52 207.16,290.58"/>
    </edge>
    <edge id=":J16_3" function="internal">
        <lane id=":J16_3_0" index="0" speed="7.42" length="19.31" shape="201.60,288.27 200.91,294.41 198.84,297.21 195.40,296.69 190.58,292.84"/>
    </edge>
    <edge id=":J16_4" function="internal">
        <lane id=":J16_4_0" index="0" speed="5.47" length="9.74" shape="192.84,290.58 195.27,292.52 197.01,292.78 198.05,291.37 198.40,288.27"/>
    </edge>
    <edge id=":J16_5" function="internal">
        <lane id=":J16_5_0" index="0" speed="8.54" length="16.33" shape="192.84,290.58 196.42,293.26 200.00,294.16 203.58,293.26 207.16,290.58"/>
    </edge>
    <edge id=":J18_0" function="internal">
        <lane id=":J18_0_0" index="0" speed="13.89" length="17.05" shape="409.42,92.84 397.37,104.90"/>
    </edge>
    <edge id=":J18_1" function="internal">
        <lane id=":J18_1_0" index="0" speed="7.42" length="6.00" shape="409.42,92.84 404.73,96.58"/>
    </edge>
    <edge id=":J18_6" function="internal">
        <lane id=":J18_6_0" index="0" speed="7.42" length="13.30" shape="404.73,96.58 404.60,96.69 401.16,97.21 399.09,94.41 398.40,88.27"/>
    </edge>
    <edge id=":J18_2" function="internal">
        <lane id=":J18_2_0" index="0" speed="5.47" length="9.74" shape="401.60,88.27 401.95,91.37 402.99,92.78 404.73,92.52 407.16,90.58"/>
    </edge>
    <edge id=":J18_3" function="internal">
        <lane id=":J18_3_0" index="0" speed="13.73" length="17.52" shape="401.60,88.27 401.34,93.96 400.54,98.62 399.22,102.27 397.37,104.90"/>
    </edge>
    <edge id=":J18_4" function="internal">
        <lane id=":J18_4_0" index="0" speed="12.73" length="15.02" shape="395.10,102.63 396.55,100.50 397.58,97.40 398.19,93.32 398.40,88.27"/>
    </edge>
    <edge id=":J18_5" function="internal">
        <lane id=":J18_5_0" index="0" speed="13.89" length="17.05" shape="395.10,102.63 407.16,90.58"/>
    </edge>
    <edge id=":J19_0" function="internal">
        <lane id=":J19_0_0" index="0" speed="9.73" length="21.49" shape="492.84,-9.42 496.37,-4.71 497.55,-0.00 496.37,4.71 492.84,9.42"/>
    </edge>
    <edge id=":J19_1" function="internal">
        <lane id=":J19_1_0" index="0" speed="7.42" length="9.49" shape="492.84,-9.42 496.69,-4.60 497.19,-1.32"/>
    </edge>
    <edge id=":J19_6" function="internal">
        <lane id=":J19_6_0" index="0" speed="7.42" length="9.82" shape="497.19,-1.32 497.21,-1.16 494.41,0.91 488.27,1.60"/>
    </edge>
    <edge id=":J19_2" function="internal">
        <lane id=":J19_2_0" index="0" speed="5.47" length="9.74" shape="488.27,-1.60 491.37,-1.95 492.78,-2.99 492.52,-4.73 490.58,-7.16"/>
    </edge>
    <edge id=":J19_3" function="internal">
        <lane id=":J19_3_0" index="0" speed="7.42" length="19.31" shape="488.27,-1.60 494.41,-0.91 497.21,1.16 496.69,4.60 492.84,9.42"/>
    </edge>
    <edge id=":J19_4" function="internal">
        <lane id=":J19_4_0" index="0" speed="5.47" length="9.74" shape="490.58,7.16 492.52,4.73 492.78,2.99 491.37,1.95 488.27,1.60"/>
    </edge>
    <edge id=":J19_5" function="internal">
        <lane id=":J19_5_0" index="0" speed="8.54" length="16.33" shape="490.58,7.16 493.26,3.58 494.16,-0.00 493.26,-3.58 490.58,-7.16"/>
    </edge>
    <edge id=":J20_0" function="internal">
        <lane id=":J20_0_0" index="0" speed="12.73" length="15.02" shape="398.40,-88.27 398.19,-93.32 397.58,-97.40 396.55,-100.50 395.10,-102.63"/>
    </edge>
    <edge id=":J20_1" function="internal">
        <lane id=":J20_1_0" index="0" speed="7.42" length="19.31" shape="398.40,-88.27 399.09,-94.41 401.16,-97.21 404.60,-96.69 409.42,-92.84"/>
    </edge>
    <edge id=":J20_2" function="internal">
        <lane id=":J20_2_0" index="0" speed="5.47" length="9.74" shape="407.16,-90.58 404.73,-92.52 402.99,-92.78 401.95,-91.37 401.60,-88.27"/>
    </edge>
    <edge id=":J20_3" function="internal">
        <lane id=":J20_3_0" index="0" speed="13.89" length="17.05" shape="407.16,-90.58 395.10,-102.63"/>
    </edge>
    <edge id=":J20_4" function="internal">
        <lane id=":J20_4_0" index="0" speed="13.89" length="17.05" shape="397.37,-104.90 409.42,-92.84"/>
    </edge>
    <edge id=":J20_5" function="internal">
        <lane id=":J20_5_0" index="0" speed="13.73" length="3.53" shape="397.37,-104.90 399.22,-102.27 399.33,-101.97"/>
    </edge>
    <edge id=":J20_6" function="internal">
        <lane id=":J20_6_0" index="0" speed="13.73" length="13.98" shape="399.33,-101.97 400.54,-98.62 401.34,-93.96 401.60,-88.27"/>
    </edge>
    <edge id=":J22_0" function="internal">
        <lane id=":J22_0_0" index="0" speed="5.47" length="9.74" shape="198.40,-288.27 198.05,-291.37 197.01,-292.78 195.27,-292.52 192.84,-290.58"/>
    </edge>
    <edge id=":J22_1" function="internal">
        <lane id=":J22_1_0" index="0" speed="7.42" length="19.31" shape="198.40,-288.27 199.09,-294.41 201.16,-297.21 204.60,-296.69 209.42,-292.84"/>
    </edge>
    <edge id=":J22_2" function="internal">
        <lane id=":J22_2_0" index="0" speed="5.47" length="9.74" shape="207.16,-290.58 204.73,-292.52 202.99,-292.78 201.95,-291.37 201.60,-288.27"/>
    </edge>
    <edge id=":J22_3" function="internal">
        <lane id=":J22_3_0" index="0" speed="8.54" length="16.33" shape="207.16,-290.58 203.58,-293.26 200.00,-294.16 196.42,-293.26 192.84,-290.58"/>
    </edge>
    <edge id=":J22_4" function="internal">
        <lane id=":J22_4_0" index="0" speed="9.73" length="21.49" shape="190.58,-292.84 195.29,-296.37 200.00,-297.55 204.71,-296.37 209.42,-292.84"/>
    </edge>
    <edge id=":J22_5" function="internal">
        <lane id=":J22_5_0" index="0" speed="7.42" length="9.49" shape="190.58,-292.84 195.40,-296.69 198.68,-297.19"/>
    </edge>
    <edge id=":J22_6" function="internal">
        <lane id=":J22_6_0" index="0" speed="7.42" length="9.82" shape="198.68,-297.19 198.84,-297.21 200.91,-294.41 201.60,-288.27"/>
    </edge>
    <edge id=":J23_0" function="internal">
        <lane id=":J23_0_0" index="0" speed="12.77" length="15.10" shape="302.63,-195.10 299.60,-197.11 296.00,-198.08 292.13,-198.38 288.27,-198.40"/>
    </edge>
    <edge id=":J23_1" function="internal">
        <lane id=":J23_1_0" index="0" speed="13.89" length="17.05" shape="302.63,-195.10 290.58,-207.16"/>
    </edge>
    <edge id=":J23_2" function="internal">
        <lane id=":J23_2_0" index="0" speed="13.89" length="17.05" shape="292.84,-209.42 304.90,-197.37"/>
    </edge>
    <edge id=":J23_3" function="internal">
        <lane id=":J23_3_0" index="0" speed="7.42" length="6.00" shape="292.84,-209.42 296.58,-204.73"/>
    </edge>
    <edge id=":J23_6" function="internal">
        <lane id=":J23_6_0" index="0" speed="7.42" length="13.30" shape="296.58,-204.73 296.69,-204.60 297.21,-201.16 294.41,-199.09 288.27,-198.40"/>
    </edge>
    <edge id=":J23_4" function="internal">
        <lane id=":J23_4_0" index="0" speed="5.47" length="9.74" shape="288.27,-201.60 291.37,-201.95 292.78,-202.99 292.52,-204.73 290.58,-207.16"/>
    </edge>
    <edge id=":J23_5" function="internal">
        <lane id=":J23_5_0" index="0" speed="13.73" length="17.52" shape="288.27,-201.60 293.96,-201.34 298.62,-200.54 302.27,-199.22 304.90,-197.37"/>
    </edge>
    <edge id=":J24_0" function="internal">
        <lane id=":J24_0_0" index="0" speed="12.73" length="15.02" shape="111.73,-198.40 106.68,-198.19 102.60,-197.58 99.50,-196.55 97.37,-195.10"/>
    </edge>
    <edge id=":J24_1" function="internal">
        <lane id=":J24_1_0" index="0" speed="7.42" length="19.31" shape="111.73,-198.40 105.59,-199.09 102.79,-201.16 103.31,-204.60 107.16,-209.42"/>
    </edge>
    <edge id=":J24_2" function="internal">
        <lane id=":J24_2_0" index="0" speed="5.47" length="9.74" shape="109.42,-207.16 107.48,-204.73 107.22,-202.99 108.63,-201.95 111.73,-201.60"/>
    </edge>
    <edge id=":J24_3" function="internal">
        <lane id=":J24_3_0" index="0" speed="13.89" length="17.05" shape="109.42,-207.16 97.37,-195.10"/>
    </edge>
    <edge id=":J24_4" function="internal">
        <lane id=":J24_4_0" index="0" speed="13.89" length="17.05" shape="95.10,-197.37 107.16,-209.42"/>
    </edge>
    <edge id=":J24_5" function="internal">
        <lane id=":J24_5_0" index="0" speed="13.73" length="3.53" shape="95.10,-197.37 97.73,-199.22 98.03,-199.33"/>
    </edge>
    <edge id=":J24_6" function="internal">
        <lane id=":J24_6_0" index="0" speed="13.73" length="13.98" shape="98.03,-199.33 101.38,-200.54 106.04,-201.34 111.73,-201.60"/>
    </edge>
    <edge id=":J26_0" function="internal">
        <lane id=":J26_0_0" index="0" speed="13.89" length="17.05" shape="2.63,104.90 -9.42,92.84"/>
    </edge>
    <edge id=":J26_1" function="internal">
        <lane id=":J26_1_0" index="0" speed="13.73" length="3.53" shape="2.63,104.90 0.78,102.27 0.67,101.97"/>
    </edge>
    <edge id=":J26_6" function="internal">
        <lane id=":J26_6_0" index="0" speed="13.73" length="13.98" shape="0.67,101.97 -0.54,98.62 -1.34,93.96 -1.60,88.27"/>
    </edge>
    <edge id=":J26_2" function="internal">
        <lane id=":J26_2_0" index="0" speed="12.73" length="15.02" shape="1.60,88.27 1.81,93.32 2.42,97.40 3.45,100.50 4.90,102.63"/>
    </edge>
    <edge id=":J26_3" function="internal">
        <lane id=":J26_3_0" index="0" speed="7.42" length="19.31" shape="1.60,88.27 0.91,94.41 -1.16,97.21 -4.60,96.69 -9.42,92.84"/>
    </edge>
    <edge id=":J26_4" function="internal">
        <lane id=":J26_4_0" index="0" speed="5.47" length="9.74" shape="-7.16,90.58 -4.73,92.52 -2.99,92.78 -1.95,91.37 -1.60,88.27"/>
    </edge>
    <edge id=":J26_5" function="internal">
        <lane id=":J26_5_0" index="0" speed="13.89" length="17.05" shape="-7.16,90.58 4.90,102.63"/>
    </edge>
    <edge id=":J27_0" function="internal">
        <lane id=":J27_0_0" index="0" speed="9.73" length="21.49" shape="-92.84,9.42 -96.37,4.71 -97.55,0.00 -96.37,-4.71 -92.84,-9.42"/>
    </edge>
    <edge id=":J27_1" function="internal">
        <lane id=":J27_1_0" index="0" speed="7.42" length="9.49" shape="-92.84,9.42 -96.69,4.60 -97.19,1.32"/>
    </edge>
    <edge id=":J27_6" function="internal">
        <lane id=":J27_6_0" index="0" speed="7.42" length="9.82" shape="-97.19,1.32 -97.21,1.16 -94.41,-0.91 -88.27,-1.60"/>
    </edge>
    <edge id=":J27_2" function="internal">
        <lane id=":J27_2_0" index="0" speed="5.47" length="9.74" shape="-88.27,1.60 -91.37,1.95 -92.78,2.99 -92.52,4.73 -90.58,7.16"/>
    </edge>
    <edge id=":J27_3" function="internal">
        <lane id=":J27_3_0" index="0" speed="7.42" length="19.31" shape="-88.27,1.60 -94.41,0.91 -97.21,-1.16 -96.69,-4.60 -92.84,-9.42"/>
    </edge>
    <edge id=":J27_4" function="internal">
        <lane id=":J27_4_0" index="0" speed="5.47" length="9.74" shape="-90.58,-7.16 -92.52,-4.73 -92.78,-2.99 -91.37,-1.95 -88.27,-1.60"/>
    </edge>
    <edge id=":J27_5" function="internal">
        <lane id=":J27_5_0" index="0" speed="8.54" length="16.33" shape="-90.58,-7.16 -93.26,-3.58 -94.16,0.00 -93.26,3.58 -90.58,7.16"/>
    </edge>
    <edge id=":J28_0" function="internal">
        <lane id=":J28_0_0" index="0" speed="5.47" length="9.74" shape="-1.60,-88.27 -1.95,-91.37 -2.99,-92.78 -4.73,-92.52 -7.16,-90.58"/>
    </edge>
    <edge id=":J28_1" function="internal">
        <lane id=":J28_1_0" index="0" speed="13.73" length="17.52" shape="-1.60,-88.27 -1.34,-93.96 -0.54,-98.62 0.78,-102.27 2.63,-104.90"/>
    </edge>
    <edge id=":J28_2" function="internal">
        <lane id=":J28_2_0" index="0" speed="12.73" length="15.02" shape="4.90,-102.63 3.45,-100.50 2.42,-97.40 1.81,-93.32 1.60,-88.27"/>
    </edge>
    <edge id=":J28_3" function="internal">
        <lane id=":J28_3_0" index="0" speed="13.89" length="17.05" shape="4.90,-102.63 -7.16,-90.58"/>
    </edge>
    <edge id=":J28_4" function="internal">
        <lane id=":J28_4_0" index="0" speed="13.89" length="17.05" shape="-9.42,-92.84 2.63,-104.90"/>
    </edge>
    <edge id=":J28_5" function="internal">
        <lane id=":J28_5_0" index="0" speed="7.42" length="6.00" shape="-9.42,-92.84 -4.73,-96.58"/>
    </edge>
    <edge id=":J28_6" function="internal">
        <lane id=":J28_6_0" index="0" speed="7.42" length="13.30" shape="-4.73,-96.58 -4.60,-96.69 -1.16,-97.21 0.91,-94.41 1.60,-88.27"/>
    </edge>

    <edge id="-E10" from="1" to="0" priority="-1" shape="200.00,200.00 200.00,100.00 200.00,0.00">
        <lane id="-E10_0" index="0" speed="13.89" length="185.60" shape="198.40,192.80 198.40,100.00 198.40,7.20"/>
    </edge>
    <edge id="-E11" from="J14" to="1" priority="-1">
        <lane id="-E11_0" index="0" speed="13.89" length="81.07" shape="288.27,201.60 207.20,201.60"/>
    </edge>
    <edge id="-E12" from="J15" to="1" priority="-1">
        <lane id="-E12_0" index="0" speed="13.89" length="81.07" shape="111.73,198.40 192.80,198.40"/>
    </edge>
    <edge id="-E13" from="J16" to="1" priority="-1">
        <lane id="-E13_0" index="0" speed="13.89" length="81.07" shape="198.40,288.27 198.40,207.20"/>
    </edge>
    <edge id="-E14" from="2" to="0" priority="-1" shape="400.00,0.00 300.00,0.00 200.00,0.00">
        <lane id="-E14_0" index="0" speed="13.89" length="185.60" shape="392.80,1.60 300.00,1.60 207.20,1.60"/>
    </edge>
    <edge id="-E15" from="J18" to="2" priority="-1">
        <lane id="-E15_0" index="0" speed="13.89" length="81.07" shape="398.40,88.27 398.40,7.20"/>
    </edge>
    <edge id="-E16" from="J19" to="2" priority="-1">
        <lane id="-E16_0" index="0" speed="13.89" length="81.07" shape="488.27,1.60 407.20,1.60"/>
    </edge>
    <edge id="-E17" from="J20" to="2" priority="-1">
        <lane id="-E17_0" index="0" speed="13.89" length="81.07" shape="401.60,-88.27 401.60,-7.20"/>
    </edge>
    <edge id="-E18" from="3" to="0" priority="-1" shape="200.00,-200.00 200.00,-100.00 200.00,0.00">
        <lane id="-E18_0" index="0" speed="13.89" length="185.60" shape="201.60,-192.80 201.60,-100.00 201.60,-7.20"/>
    </edge>
    <edge id="-E180" from="J24" to="J28" priority="-1">
        <lane id="-E180_0" index="0" speed="13.89" length="130.77" shape="97.37,-195.10 4.90,-102.63"/>
    </edge>
    <edge id="-E19" from="J22" to="3" priority="-1">
        <lane id="-E19_0" index="0" speed="13.89" length="81.07" shape="201.60,-288.27 201.60,-207.20"/>
    </edge>
    <edge id="-E20" from="J23" to="3" priority="-1">
        <lane id="-E20_0" index="0" speed="13.89" length="81.07" shape="288.27,-198.40 207.20,-198.40"/>
    </edge>
    <edge id="-E21" from="J24" to="3" priority="-1">
        <lane id="-E21_0" index="0" speed="13.89" length="81.07" shape="111.73,-201.60 192.80,-201.60"/>
    </edge>
    <edge id="-E22" from="4" to="0" priority="-1" shape="0.00,0.00 100.00,0.00 200.00,0.00">
        <lane id="-E22_0" index="0" speed="13.89" length="185.60" shape="7.20,-1.60 100.00,-1.60 192.80,-1.60"/>
    </edge>
    <edge id="-E220" from="J22" to="J24" priority="-1">
        <lane id="-E220_0" index="0" speed="13.89" length="117.97" shape="192.84,-290.58 109.42,-207.16"/>
    </edge>
    <edge id="-E23" from="J26" to="4" priority="-1">
        <lane id="-E23_0" index="0" speed="13.89" length="81.07" shape="-1.60,88.27 -1.60,7.20"/>
    </edge>
    <edge id="-E24" from="J27" to="4" priority="-1">
        <lane id="-E24_0" index="0" speed="13.89" length="81.07" shape="-88.27,-1.60 -7.20,-1.60"/>
    </edge>
    <edge id="-E25" from="J28" to="4" priority="-1">
        <lane id="-E25_0" index="0" speed="13.89" length="81.07" shape="1.60,-88.27 1.60,-7.20"/>
    </edge>
    <edge id="-E26" from="J23" to="J22" priority="-1">
        <lane id="-E26_0" index="0" speed="13.89" length="117.97" shape="290.58,-207.16 207.16,-290.58"/>
    </edge>
    <edge id="-E27" from="J20" to="J23" priority="-1">
        <lane id="-E27_0" index="0" speed="13.89" length="130.77" shape="395.10,-102.63 302.63,-195.10"/>
    </edge>
    <edge id="-E28" from="J19" to="J20" priority="-1">
        <lane id="-E28_0" index="0" speed="13.89" length="117.97" shape="490.58,-7.16 407.16,-90.58"/>
    </edge>
    <edge id="-E29" from="J18" to="J19" priority="-1">
        <lane id="-E29_0" index="0" speed="13.89" length="117.97" shape="407.16,90.58 490.58,7.16"/>
    </edge>
    <edge id="-E30" from="J14" to="J18" priority="-1">
        <lane id="-E30_0" index="0" speed="13.89" length="130.77" shape="302.63,195.10 395.10,102.63"/>
    </edge>
    <edge id="-E31" from="J16" to="J14" priority="-1">
        <lane id="-E31_0" index="0" speed="13.89" length="117.97" shape="207.16,290.58 290.58,207.16"/>
    </edge>
    <edge id="-E32" from="J15" to="J16" priority="-1">
        <lane id="-E32_0" index="0" speed="13.89" length="117.97" shape="109.42,207.16 192.84,290.58"/>
    </edge>
    <edge id="-E33" from="J26" to="J15" priority="-1">
        <lane id="-E33_0" index="0" speed="13.89" length="130.77" shape="4.90,102.63 97.37,195.10"/>
    </edge>
    <edge id="-E34" from="J27" to="J26" priority="-1">
        <lane id="-E34_0" index="0" speed="13.89" length="117.97" shape="-90.58,7.16 -7.16,90.58"/>
    </edge>
    <edge id="-E35" from="J28" to="J27" priority="-1">
        <lane id="-E35_0" index="0" speed="13.89" length="117.97" shape="-7.16,-90.58 -90.58,-7.16"/>
    </edge>
    <edge id="E11" from="1" to="J14" priority="-1">
        <lane id="E11_0" index="0" speed="13.89" length="81.07" shape="207.20,198.40 288.27,198.40"/>
    </edge>
    <edge id="E12" from="1" to="J15" priority="-1">
        <lane id="E12_0" index="0" speed="13.89" length="81.07" shape="192.80,201.60 111.73,201.60"/>
    </edge>
    <edge id="E13" from="1" to="J16" priority="-1">
        <lane id="E13_0" index="0" speed="13.89" length="81.07" shape="201.60,207.20 201.60,288.27"/>
    </edge>
    <edge id="E15" from="2" to="J18" priority="-1">
        <lane id="E15_0" index="0" speed="13.89" length="81.07" shape="401.60,7.20 401.60,88.27"/>
    </edge>
    <edge id="E16" from="2" to="J19" priority="-1">
        <lane id="E16_0" index="0" speed="13.89" length="81.07" shape="407.20,-1.60 488.27,-1.60"/>
    </edge>
    <edge id="E17" from="2" to="J20" priority="-1">
        <lane id="E17_0" index="0" speed="13.89" length="81.07" shape="398.40,-7.20 398.40,-88.27"/>
    </edge>
    <edge id="E18" from="J28" to="J24" priority="-1">